/*--------------------------------*- C++ -*----------------------------------*\
  =========                 |
  \\      /  F ield         | OpenFOAM: The Open Source CFD Toolbox
   \\    /   O peration     | Website:  https://openfoam.org
    \\  /    A nd           | Version:  dev
     \\/     M anipulation  |
\*---------------------------------------------------------------------------*/
FoamFile
{
    version     2.0;
    format      ascii;
    class       volScalarField;
    object      epsilon;
}
// * * * * * * * * * * * * * * * * * * * * * * * * * * * * * * * * * * * * * //

dimensions      [0 2 -3 0 0 0 0];

internalField   uniform 4e-06;

boundaryField
{
    inlet
    {
        type            fixedValue;
        value           $internalField;
    }

    outlet
    {
        type            inletOutlet;
        inletValue      $internalField;
    }

    concreteWall
    {
        type            epsilonWallFunction;
        value           $internalField;
        Cmu             0.09;
        kappa           0.41;
        E               9.8;
    }
    pipe1
    {
        type            epsilonWallFunction;
        value           $internalField;
        Cmu             0.09;
        kappa           0.41;
        E               9.8;
    }
    pipe2
    {
        type            epsilonWallFunction;
        value           $internalField;
        Cmu             0.09;
        kappa           0.41;
        E               9.8;
    }

    top
    {
        type            slip;
    }
}

// ************************************************************************* //
